Version 4
SHEET 1 2452 1412
WIRE 928 384 928 368
WIRE 928 384 848 384
WIRE 976 384 928 384
WIRE 848 464 848 384
WIRE 784 480 704 480
WIRE 816 480 784 480
WIRE 928 496 880 496
WIRE 944 496 928 496
WIRE 752 512 704 512
WIRE 816 512 752 512
WIRE 976 528 976 384
WIRE 944 544 944 496
WIRE 1088 560 1008 560
WIRE 1504 560 1504 544
WIRE 1504 560 1424 560
WIRE 1552 560 1504 560
WIRE 720 576 704 576
WIRE 944 576 720 576
WIRE 976 624 976 592
WIRE 992 624 976 624
WIRE 1424 640 1424 560
WIRE 960 656 960 640
WIRE 1360 656 1280 656
WIRE 1392 656 1360 656
WIRE 928 672 928 496
WIRE 1504 672 1456 672
WIRE 1520 672 1504 672
WIRE 1088 688 992 688
WIRE 1328 688 1280 688
WIRE 1392 688 1328 688
WIRE 720 704 720 576
WIRE 928 704 720 704
WIRE 1552 704 1552 560
WIRE 1120 720 1120 704
WIRE 1520 720 1520 672
WIRE 1088 736 1088 688
WIRE 1664 736 1584 736
WIRE 2096 736 2096 720
WIRE 2096 736 2016 736
WIRE 2144 736 2096 736
WIRE 960 752 960 720
WIRE 976 752 960 752
WIRE 1296 752 1152 752
WIRE 1520 752 1296 752
WIRE 960 800 944 800
WIRE 1552 800 1552 768
WIRE 1568 800 1552 800
WIRE 960 816 960 800
WIRE 2016 816 2016 736
WIRE 784 832 784 480
WIRE 928 832 784 832
WIRE 1536 832 1536 816
WIRE 1952 832 1872 832
WIRE 1984 832 1952 832
WIRE 1088 848 1088 768
WIRE 1088 848 992 848
WIRE 1504 848 1504 672
WIRE 2096 848 2048 848
WIRE 2112 848 2096 848
WIRE 752 864 752 512
WIRE 928 864 752 864
WIRE 1664 864 1568 864
WIRE 1920 864 1872 864
WIRE 1984 864 1920 864
WIRE 1296 880 1296 752
WIRE 1504 880 1296 880
WIRE 2144 880 2144 736
WIRE 1696 896 1696 880
WIRE 2112 896 2112 848
WIRE 1664 912 1664 864
WIRE 2256 912 2176 912
WIRE 848 928 848 528
WIRE 960 928 960 880
WIRE 960 928 848 928
WIRE 1120 928 1120 784
WIRE 1120 928 960 928
WIRE 1536 928 1536 896
WIRE 1552 928 1536 928
WIRE 1888 928 1728 928
WIRE 2112 928 1888 928
WIRE 960 976 960 928
WIRE 1536 976 1520 976
WIRE 2144 976 2144 944
WIRE 2160 976 2144 976
WIRE 1536 992 1536 976
WIRE 1360 1008 1360 656
WIRE 1504 1008 1360 1008
WIRE 2128 1008 2128 992
WIRE 1664 1024 1664 944
WIRE 1664 1024 1568 1024
WIRE 2096 1024 2096 848
WIRE 1328 1040 1328 688
WIRE 1504 1040 1328 1040
WIRE 2256 1040 2160 1040
WIRE 1888 1056 1888 928
WIRE 2096 1056 1888 1056
WIRE 2288 1072 2288 1056
WIRE 2256 1088 2256 1040
WIRE 1424 1104 1424 704
WIRE 1536 1104 1536 1056
WIRE 1536 1104 1424 1104
WIRE 1696 1104 1696 960
WIRE 1696 1104 1536 1104
WIRE 2128 1104 2128 1072
WIRE 2144 1104 2128 1104
WIRE 2384 1104 2320 1104
WIRE 1536 1152 1536 1104
WIRE 2128 1152 2112 1152
WIRE 2128 1168 2128 1152
WIRE 1952 1184 1952 832
WIRE 2096 1184 1952 1184
WIRE 2256 1200 2256 1120
WIRE 2256 1200 2160 1200
WIRE 1920 1216 1920 864
WIRE 2096 1216 1920 1216
WIRE 2016 1280 2016 880
WIRE 2128 1280 2128 1232
WIRE 2128 1280 2016 1280
WIRE 2288 1280 2288 1136
WIRE 2288 1280 2128 1280
WIRE 2128 1328 2128 1280
FLAG 704 576 cin
FLAG 928 368 vdd
FLAG 1088 560 o1
FLAG 704 480 a1
FLAG 704 512 b1
FLAG 960 976 vss
FLAG 960 640 vdd
FLAG 1120 704 vdd
FLAG 960 800 vdd
FLAG 992 624 vss
FLAG 976 752 vss
FLAG 1504 544 vdd
FLAG 1664 736 o2
FLAG 1280 656 a2
FLAG 1280 688 b2
FLAG 1536 1152 vss
FLAG 1536 816 vdd
FLAG 1696 880 vdd
FLAG 1536 976 vdd
FLAG 1568 800 vss
FLAG 1552 928 vss
FLAG 2096 720 vdd
FLAG 2256 912 o3
FLAG 1872 832 a3
FLAG 1872 864 b3
FLAG 2128 1328 vss
FLAG 2128 992 vdd
FLAG 2288 1056 vdd
FLAG 2128 1152 vdd
FLAG 2160 976 vss
FLAG 2144 1104 vss
FLAG 2384 1104 cout
SYMBOL xor 848 496 R0
WINDOW 0 11 -34 Left 2
SYMATTR InstName X1
SYMBOL xor 976 560 R0
WINDOW 0 5 -39 Left 2
SYMATTR InstName X2
SYMBOL nand 960 688 R0
SYMATTR InstName X3
SYMBOL nand 960 848 R0
SYMATTR InstName X4
SYMBOL nand 1120 752 R0
SYMATTR InstName X5
SYMBOL xor 1424 672 R0
WINDOW 0 11 -34 Left 2
SYMATTR InstName X6
SYMBOL xor 1552 736 R0
WINDOW 0 5 -39 Left 2
SYMATTR InstName X7
SYMBOL nand 1536 864 R0
SYMATTR InstName X8
SYMBOL nand 1536 1024 R0
SYMATTR InstName X9
SYMBOL nand 1696 928 R0
SYMATTR InstName X10
SYMBOL xor 2016 848 R0
WINDOW 0 11 -34 Left 2
SYMATTR InstName X11
SYMBOL xor 2144 912 R0
WINDOW 0 5 -39 Left 2
SYMATTR InstName X12
SYMBOL nand 2128 1040 R0
SYMATTR InstName X13
SYMBOL nand 2128 1200 R0
SYMATTR InstName X14
SYMBOL nand 2288 1104 R0
SYMATTR InstName X15
