Version 4
SHEET 1 880 1032
WIRE 32 112 32 64
WIRE 32 112 -48 112
WIRE 112 112 32 112
WIRE -48 160 -48 112
WIRE -80 176 -160 176
WIRE 112 176 112 112
WIRE 96 192 -16 192
WIRE 224 192 144 192
WIRE -80 208 -160 208
WIRE -48 256 -48 224
WIRE 32 256 -48 256
WIRE 112 256 112 208
WIRE 112 256 32 256
WIRE 32 288 32 256
WIRE 32 368 -48 368
WIRE 112 368 32 368
WIRE -48 416 -48 368
WIRE -80 432 -160 432
WIRE 112 432 112 368
WIRE 96 448 -16 448
WIRE 224 448 144 448
WIRE -80 464 -160 464
WIRE -48 512 -48 480
WIRE 32 512 -48 512
WIRE 112 512 112 464
WIRE 112 512 32 512
WIRE 32 544 32 512
WIRE 32 656 32 640
WIRE 32 656 -48 656
WIRE 96 656 32 656
WIRE -48 704 -48 656
WIRE -80 720 -160 720
WIRE 96 720 96 656
WIRE 80 736 -16 736
WIRE 240 736 128 736
WIRE -80 752 -160 752
WIRE -48 800 -48 768
WIRE 32 800 -48 800
WIRE 96 800 96 752
WIRE 96 800 32 800
WIRE 32 832 32 800
FLAG 32 64 vdd
FLAG 224 192 o1
FLAG 224 448 o2
FLAG 240 736 o3
FLAG -160 176 a1
FLAG -160 432 a2
FLAG -160 720 a3
FLAG -160 208 b1
FLAG -160 464 b2
FLAG -160 752 b3
FLAG 32 832 vss
FLAG 32 368 vdd
FLAG 32 640 vdd
FLAG 32 288 vss
FLAG 32 544 vss
SYMBOL nand -48 192 R0
SYMATTR InstName X1
SYMBOL nand -48 448 R0
SYMATTR InstName X2
SYMBOL nand -48 736 R0
SYMATTR InstName X3
SYMBOL inv 112 192 R0
WINDOW 0 15 -31 Left 2
SYMATTR InstName X4
SYMBOL inv 112 448 R0
WINDOW 0 14 -26 Left 2
SYMATTR InstName X5
SYMBOL inv 96 736 R0
WINDOW 0 16 -27 Left 2
SYMATTR InstName X6
