Version 4
SHEET 1 1628 1476
WIRE 1344 80 1344 48
WIRE 1344 80 1232 80
WIRE 1472 80 1344 80
WIRE 1344 112 1344 80
WIRE 1312 128 1072 128
WIRE 1440 144 1376 144
WIRE 1472 192 1472 80
WIRE 1232 208 1232 80
WIRE 1344 208 1344 176
WIRE 1360 208 1344 208
WIRE 1440 208 1440 144
WIRE 1168 224 1072 224
WIRE 1216 224 1168 224
WIRE 1312 224 1312 160
WIRE 1312 224 1264 224
WIRE 1584 224 1504 224
WIRE 1360 240 1344 240
WIRE 1344 272 1344 240
WIRE 1168 288 1168 224
WIRE 1312 288 1168 288
WIRE 1440 304 1440 240
WIRE 1440 304 1376 304
WIRE 1312 320 1072 320
WIRE 1232 368 1232 240
WIRE 1344 368 1344 336
WIRE 1344 368 1232 368
WIRE 1472 368 1472 256
WIRE 1472 368 1344 368
WIRE 1344 416 1344 368
WIRE 1344 560 1344 528
WIRE 1344 560 1232 560
WIRE 1472 560 1344 560
WIRE 1344 592 1344 560
WIRE 1312 608 1072 608
WIRE 1440 624 1376 624
WIRE 1472 672 1472 560
WIRE 1232 688 1232 560
WIRE 1344 688 1344 656
WIRE 1360 688 1344 688
WIRE 1440 688 1440 624
WIRE 1168 704 1072 704
WIRE 1216 704 1168 704
WIRE 1312 704 1312 640
WIRE 1312 704 1264 704
WIRE 1584 704 1504 704
WIRE 1360 720 1344 720
WIRE 1344 752 1344 720
WIRE 1168 768 1168 704
WIRE 1312 768 1168 768
WIRE 1440 784 1440 720
WIRE 1440 784 1376 784
WIRE 1312 800 1072 800
WIRE 1232 848 1232 720
WIRE 1344 848 1344 816
WIRE 1344 848 1232 848
WIRE 1472 848 1472 736
WIRE 1472 848 1344 848
WIRE 1344 896 1344 848
WIRE 1344 1056 1344 1024
WIRE 1344 1056 1232 1056
WIRE 1472 1056 1344 1056
WIRE 1344 1088 1344 1056
WIRE 1312 1104 1072 1104
WIRE 1440 1120 1376 1120
WIRE 1472 1168 1472 1056
WIRE 1232 1184 1232 1056
WIRE 1344 1184 1344 1152
WIRE 1360 1184 1344 1184
WIRE 1440 1184 1440 1120
WIRE 1168 1200 1072 1200
WIRE 1216 1200 1168 1200
WIRE 1312 1200 1312 1136
WIRE 1312 1200 1264 1200
WIRE 1584 1200 1504 1200
WIRE 1360 1216 1344 1216
WIRE 1344 1248 1344 1216
WIRE 1168 1264 1168 1200
WIRE 1312 1264 1168 1264
WIRE 1440 1280 1440 1216
WIRE 1440 1280 1376 1280
WIRE 1312 1296 1072 1296
WIRE 1232 1344 1232 1216
WIRE 1344 1344 1344 1312
WIRE 1344 1344 1232 1344
WIRE 1472 1344 1472 1232
WIRE 1472 1344 1344 1344
WIRE 1344 1392 1344 1344
FLAG 1344 48 vdd
FLAG 1584 224 o1
FLAG 1344 416 vss
FLAG 1072 224 sel
FLAG 1072 128 a1
FLAG 1072 320 b1
FLAG 1360 240 vdd
FLAG 1360 208 vss
FLAG 1344 528 vdd
FLAG 1584 704 o2
FLAG 1344 896 vss
FLAG 1072 704 sel
FLAG 1072 608 a2
FLAG 1072 800 b2
FLAG 1360 720 vdd
FLAG 1360 688 vss
FLAG 1344 1024 vdd
FLAG 1584 1200 o3
FLAG 1344 1392 vss
FLAG 1072 1200 sel
FLAG 1072 1104 a3
FLAG 1072 1296 b3
FLAG 1360 1216 vdd
FLAG 1360 1184 vss
SYMBOL nand 1344 304 R0
SYMATTR InstName X2
SYMBOL nand 1344 144 R0
SYMATTR InstName X3
SYMBOL nand 1472 224 R0
SYMATTR InstName X4
SYMBOL inv 1232 224 R0
SYMATTR InstName X1
SYMBOL nand 1344 784 R0
SYMATTR InstName X5
SYMBOL nand 1344 624 R0
SYMATTR InstName X6
SYMBOL nand 1472 704 R0
SYMATTR InstName X7
SYMBOL inv 1232 704 R0
SYMATTR InstName X8
SYMBOL nand 1344 1280 R0
SYMATTR InstName X9
SYMBOL nand 1344 1120 R0
SYMATTR InstName X10
SYMBOL nand 1472 1200 R0
SYMATTR InstName X11
SYMBOL inv 1232 1200 R0
SYMATTR InstName X12
