Version 4
SHEET 1 1192 1076
WIRE 448 176 448 160
WIRE 448 240 448 176
WIRE 448 240 304 240
WIRE 512 240 448 240
WIRE 304 272 304 240
WIRE 512 272 512 240
WIRE 304 320 304 288
WIRE 512 320 512 288
WIRE 256 352 224 352
WIRE 464 352 432 352
WIRE 448 368 304 368
WIRE 512 368 448 368
WIRE 640 368 512 368
WIRE 672 368 640 368
WIRE 448 400 448 368
WIRE 400 480 336 480
WIRE 448 480 448 448
WIRE 448 528 448 496
WIRE 400 608 336 608
WIRE 448 608 448 576
WIRE 448 688 448 624
FLAG 448 176 vdd
FLAG 448 688 vss
FLAG 640 368 Q
FLAG 336 480 in1
FLAG 336 608 in2
FLAG 224 352 in1
FLAG 432 352 in2
SYMBOL nmos018 400 400 R0
SYMATTR InstName M1
SYMATTR Value2 l={ll} w={wn*2} ad={450n*{wn}} as={450n*{wn}} pd={900n*{wn}} ps={1080n*{wn}}
SYMBOL nmos018 400 528 R0
SYMATTR InstName M2
SYMATTR Value2 l={ll} w={wn*2} ad={450n*{wn}} as={450n*{wn}} pd={900n*{wn}} ps={1080n*{wn}}
SYMBOL pmos018 256 272 R0
SYMATTR InstName M3
SYMATTR Value2 l={ll} w={wp} ad={450n*{wp}} as={450n*{wp}} pd={900n+{wp}} ps={1080n+{wp}}
SYMBOL pmos018 464 272 R0
SYMATTR InstName M4
SYMATTR Value2 l={ll} w={wp} ad={450n*{wp}} as={450n*{wp}} pd={900n+{wp}} ps={1080n+{wp}}
TEXT 120 168 Left 2 !.lib BU_180nm.lib
TEXT 544 168 Left 2 ;Parametres requis: \nll=longueur \nwn=largeur_nmos \nwp=largeur_pmos
TEXT 120 136 Left 2 !.param ll=180n wn=180n wp=475n
