Version 4
SHEET 1 1192 900
WIRE 416 288 416 224
WIRE 416 336 416 304
WIRE 368 368 272 368
WIRE 416 400 416 384
WIRE 416 448 416 416
WIRE 368 480 272 480
WIRE 416 560 416 496
WIRE 416 560 368 560
WIRE 608 560 416 560
WIRE 736 560 608 560
WIRE 368 624 368 560
WIRE 608 624 608 560
WIRE 320 704 272 704
WIRE 368 704 368 672
WIRE 560 704 512 704
WIRE 608 704 608 672
WIRE 368 752 368 720
WIRE 464 752 368 752
WIRE 608 752 608 720
WIRE 608 752 464 752
WIRE 464 800 464 752
FLAG 416 224 vdd
FLAG 464 800 vss
FLAG 736 560 Q
FLAG 272 368 in1
FLAG 272 480 in2
FLAG 272 704 in1
FLAG 512 704 in2
SYMBOL pmos018 368 288 R0
SYMATTR InstName M1
SYMATTR Value2 l={ll} w={wn*2.63} ad={450n*{wp}} as={450n*{wp}} pd={900n+{wp}} ps={1080n+{wp}}
SYMBOL nmos018 320 624 R0
SYMATTR InstName M3
SYMATTR Value2 l={ll} w={wn} ad={450n*{wn}} as={450n*{wn}} pd={900n*{wn}} ps={1080n*{wn}}
SYMBOL nmos018 560 624 R0
SYMATTR InstName M4
SYMATTR Value2 l={ll} w={wn} ad={450n*{wn}} as={450n*{wn}} pd={900n*{wn}} ps={1080n*{wn}}
SYMBOL pmos018 368 400 R0
SYMATTR InstName M2
SYMATTR Value2 l={ll} w={wn*2.63} ad={450n*{wp}} as={450n*{wp}} pd={900n+{wp}} ps={1080n+{wp}}
TEXT 152 200 Left 2 !.lib BU_180nm.lib
TEXT 576 192 Left 2 ;Parametres requis: \nll=longueur \nwn=largeur_nmos \nwp=largeur_pmos
TEXT 152 168 Left 2 !.param ll=180n wn=180n wp=180n
