Version 4
SHEET 1 1192 820
WIRE 448 32 448 -16
WIRE 448 32 352 32
WIRE 576 32 448 32
WIRE 352 64 352 32
WIRE 576 64 576 32
WIRE 352 112 352 80
WIRE 576 112 576 80
WIRE 304 144 272 144
WIRE 528 144 512 144
WIRE -160 176 -288 176
WIRE -16 176 -160 176
WIRE 352 208 352 160
WIRE 576 208 576 160
WIRE 352 256 352 224
WIRE 576 256 576 224
WIRE -288 272 -288 176
WIRE -16 272 -16 176
WIRE -304 288 -336 288
WIRE -240 288 -256 288
WIRE -32 288 -64 288
WIRE 32 288 16 288
WIRE 304 288 272 288
WIRE 528 288 496 288
WIRE 352 336 352 304
WIRE 464 336 352 336
WIRE 576 336 576 304
WIRE 576 336 464 336
WIRE 464 368 464 336
WIRE 848 368 464 368
WIRE 464 400 464 368
WIRE 464 400 352 400
WIRE 576 400 464 400
WIRE -288 416 -288 304
WIRE -160 416 -288 416
WIRE -16 416 -16 304
WIRE -16 416 -160 416
WIRE 352 432 352 400
WIRE 576 432 576 400
WIRE 304 512 240 512
WIRE 352 512 352 480
WIRE 528 512 512 512
WIRE 576 512 576 480
WIRE 352 576 352 528
WIRE 576 576 576 528
WIRE 304 656 240 656
WIRE 352 656 352 624
WIRE 528 656 512 656
WIRE 576 656 576 624
WIRE 352 704 352 672
WIRE 448 704 352 704
WIRE 576 704 576 672
WIRE 576 704 448 704
WIRE 448 736 448 704
FLAG 272 144 in1
FLAG 448 736 vss
FLAG 448 -16 vdd
FLAG 848 368 Q
FLAG 240 512 in1
FLAG 240 656 in2
FLAG -64 288 in2
FLAG -160 416 vss
FLAG -160 176 vdd
FLAG 32 288 in2_inv
FLAG -336 288 in1
FLAG -240 288 in1_inv
FLAG 272 288 in2_inv
FLAG 496 288 in2
FLAG 512 144 in1_inv
FLAG 512 512 in1_inv
FLAG 512 656 in2_inv
SYMBOL nmos018 528 432 R0
SYMATTR InstName M11
SYMATTR Value2 l={ll} w={wn * 2} ad={450n*{wn}} as={450n*{wn}} pd={900n*{wn}} ps={1080n*{wn}}
SYMBOL pmos018 304 208 R0
SYMATTR InstName M4
SYMATTR Value2 l={ll} w={wp * 2} ad={450n*{wp}} as={450n*{wp}} pd={900n+{wp}} ps={1080n+{wp}}
SYMBOL pmos018 304 64 R0
SYMATTR InstName M1
SYMATTR Value2 l={ll} w={wp * 2} ad={450n*{wp}} as={450n*{wp}} pd={900n+{wp}} ps={1080n+{wp}}
SYMBOL pmos018 528 64 R0
SYMATTR InstName M2
SYMATTR Value2 l={ll} w={wp * 2} ad={450n*{wp}} as={450n*{wp}} pd={900n+{wp}} ps={1080n+{wp}}
SYMBOL pmos018 528 208 R0
SYMATTR InstName M3
SYMATTR Value2 l={ll} w={wp * 2} ad={450n*{wp}} as={450n*{wp}} pd={900n+{wp}} ps={1080n+{wp}}
SYMBOL nmos018 304 432 R0
SYMATTR InstName M5
SYMATTR Value2 l={ll} w={wn * 2} ad={450n*{wn}} as={450n*{wn}} pd={900n*{wn}} ps={1080n*{wn}}
SYMBOL nmos018 528 576 R0
SYMATTR InstName M6
SYMATTR Value2 l={ll} w={wn * 2} ad={450n*{wn}} as={450n*{wn}} pd={900n*{wn}} ps={1080n*{wn}}
SYMBOL nmos018 304 576 R0
SYMATTR InstName M7
SYMATTR Value2 l={ll} w={wn * 2} ad={450n*{wn}} as={450n*{wn}} pd={900n*{wn}} ps={1080n*{wn}}
SYMBOL inv -16 288 R0
SYMATTR InstName X2
SYMBOL inv -288 288 R0
SYMATTR InstName X1
TEXT -168 48 Left 2 !.lib BU_180nm.lib
TEXT 808 56 Left 2 ;Parametres requis: \nll=longueur \nwn=largeur_nmos \nwp=largeur_pmos
TEXT -168 8 Left 2 !.param ll=180n wn=180n wp=475n
