Version 4
SHEET 1 1136 680
WIRE 320 128 -96 128
WIRE 720 128 528 128
WIRE 912 128 720 128
WIRE 528 160 528 128
WIRE 720 160 720 128
WIRE 752 160 720 160
WIRE 720 176 720 160
WIRE -96 208 -96 128
WIRE 752 224 752 160
WIRE 752 224 720 224
WIRE 320 240 320 128
WIRE -96 256 -96 208
WIRE 528 256 528 240
WIRE 672 256 528 256
WIRE 912 256 912 128
WIRE 352 288 320 288
WIRE 128 320 64 320
WIRE 272 320 128 320
WIRE 352 336 352 288
WIRE 352 336 320 336
WIRE 720 336 720 272
WIRE 64 352 64 320
WIRE -96 480 -96 336
WIRE 64 480 64 432
WIRE 64 480 -96 480
WIRE 320 480 320 336
WIRE 320 480 64 480
WIRE 720 480 720 416
WIRE 720 480 320 480
WIRE 912 480 912 336
WIRE 912 480 720 480
WIRE -96 496 -96 480
FLAG -96 496 0
FLAG 128 320 Vi
FLAG -96 208 Vd
SYMBOL /voltage -96 240 R0
SYMATTR InstName V1
SYMATTR Value {vv}
SYMBOL /voltage 64 336 R0
SYMATTR InstName V2
SYMATTR Value 1
SYMBOL nmos018 272 240 R0
SYMATTR InstName Mn1
SYMATTR Value2 l={ll} w={wn} ad={450n*{wn}} as={450n*{wn}} pd={900n+{wn}} ps={1080n+{wn}}
SYMBOL pmos018 672 176 R0
SYMATTR InstName Mp2
SYMATTR Value2 l={ll} w={wp} ad={450n*{wp}} as={450n*{wp}} pd={900n+{wp}} ps={1080n+{wp}}
SYMBOL /voltage 912 240 R0
SYMATTR InstName V3
SYMATTR Value {vv}
SYMBOL /bv 720 320 R0
SYMATTR InstName B1
SYMATTR Value V={vv}-V(Vd)
SYMBOL /bv 528 144 R0
SYMATTR InstName B2
SYMATTR Value V=V(Vi)
TEXT -320 -72 Left 2 !.lib BU_180nm.lib\n.param vv=1.8 ll=180n wn=1u wp=1u\n.dc V1 0 {vv} 0.01 V2 0 {vv} .2
TEXT 456 -72 Left 2 ;Description des paramètres\nvv = valeur de l'alimentation Vdd\nll = longueur de la grille\nwn = largeur de la grille du transistor NMOS\nwp = largeur de la grille du transistor PMOS\nmp = ratio wp/wn
